26
    s                      x[A]                      y[A]                      z[A]                      q[e]
    O	-1.0453422070	0.2478687614	0.0000000000	0.1045239046
O	-1.1227306128	0.2032395154	0.0000000000	0.1002988890
N	-1.2169671059	0.2540998161	0.0000000000	-0.4071918726
O	-1.0812808275	-1.0733842850	0.0000000000	0.1061789989
O	-1.1001670361	-1.0659914017	0.0000000000	0.1036902741
N	-1.2038636208	-1.1288912296	0.0000000000	-0.3478212357
O	1.0812785625	-1.0733832121	0.0000000000	0.1061793119
O	1.1001652479	-1.0659898520	0.0000000000	0.1036899313
N	1.2038596869	-1.1288926601	0.0000000000	-0.3478204608
O	-2.1758246422	-1.6886422634	0.0000000000	0.1508859396
O	1.0453442335	0.2478633821	0.0000000000	0.1045245379
O	1.1227319241	0.2032353133	0.0000000000	0.1002995819
N	1.2169681787	0.2540969551	0.0000000000	-0.4071927071
O	0.0000051872	2.1175761223	0.0000000000	0.0675962567
N	0.0000053448	2.2689909935	0.0000000000	-0.1671650857
N	0.0000055647	2.3150620461	0.0000000000	-0.0490296334
O	-0.0000009107	0.8738233447	0.0000000000	0.0201303903
O	-0.0000006412	0.9078118801	0.0000000000	0.1534847915
O	0.0000000753	0.9286506772	0.0000000000	0.0234532077
O	-0.0000026276	-2.9485440254	0.0000000000	0.1487508714
O	-2.1753880978	0.8493746519	0.0000000000	0.1658067554
O	-0.0000039615	-1.6876943111	0.0000000000	0.1041457355
O	-0.0000039232	-1.7138411999	0.0000000000	0.1135538220
N	-0.0000030191	-1.8283032179	0.0000000000	-0.3676659465
O	2.1753852367	0.8493775725	0.0000000000	0.1658072174
O	2.1758193970	-1.6886453629	0.0000000000	0.1508865058
