36
    s                      x[A]                      y[A]                      z[A]                      q[e]
    N	-1.2534533739	0.2815012336	0.0000000000	-0.1499968171
O	-1.1032383442	0.1887821555	0.0000000000	0.0470335558
N	-1.3471797705	0.3324206173	0.0000000000	-0.0899491310
N	-1.2320919037	-1.1452133656	0.0000000000	-0.0752535015
O	-1.0585523844	-1.0581233501	0.0000000000	0.0585376993
N	-1.3241471052	-1.1869895458	0.0000000000	-0.0954369009
N	1.2320873737	-1.1452161074	0.0000000000	-0.0752527937
O	1.0585503578	-1.0581233501	0.0000000000	0.0585377440
N	1.3241434097	-1.1869897842	0.0000000000	-0.0954373777
O	-2.2104108334	-1.7063920498	0.0000000000	0.0254142880
O	-2.2132596970	-1.7130869627	0.0000000000	0.0877175555
O	-2.3855860233	-1.8159782887	0.0000000000	0.0127728656
N	1.2534534931	0.2814994454	0.0000000000	-0.1499979496
O	1.1032397747	0.1887759119	0.0000000000	0.0470347777
N	1.3471809626	0.3324160576	0.0000000000	-0.0899496377
N	0.0000059137	2.4441616535	0.0000000000	-0.0915047526
N	0.0000058349	2.3438365459	0.0000000000	-0.1595160663
O	0.0000053040	2.3084313869	0.0000000000	0.0997187272
O	0.0000016292	0.9867531061	0.0000000000	0.3607943654
O	-0.0000006216	0.9398425221	0.0000000000	0.0044480637
N	-0.0000022115	1.0228197575	0.0000000000	-0.1493040919
O	-0.0000026693	-2.9915826321	0.0000000000	0.0292531103
O	-0.0000027861	-2.9755024910	0.0000000000	0.0856060460
O	-0.0000026802	-3.1887662411	0.0000000000	0.0101279318
O	-2.1835577488	0.8618532419	0.0000000000	0.0549961552
O	-2.1974544525	0.8857239485	0.0000000000	0.0864456519
O	-2.4543337822	0.9328732491	0.0000000000	0.0082732663
N	-0.0000023733	-1.8546531200	0.0000000000	-0.0962086022
O	-0.0000039692	-1.6731069088	0.0000000000	0.0587218031
N	-0.0000036901	-1.9633314610	0.0000000000	-0.0932468772
O	2.1835551262	0.8618558645	0.0000000000	0.0549966469
O	2.1974527836	0.8857274055	0.0000000000	0.0864460394
O	2.4543311596	0.9328765869	0.0000000000	0.0082726777
O	2.2104051113	-1.7063949108	0.0000000000	0.0254143178
O	2.2132554054	-1.7130889893	0.0000000000	0.0877178386
O	2.3855812550	-1.8159828186	0.0000000000	0.0127733275
