36
    s                      x[A]                      y[A]                      z[A]                      q[e]
    O	1.1155116558	0.8208992481	0.0000000000	0.1253636479
O	1.1162184477	0.8061963916	0.0000000000	0.1181811467
N	1.2056039572	0.7876571417	0.0000000000	-0.2985853255
O	1.0866332054	2.0619075298	0.0000000000	0.1172115579
O	1.1107629538	2.1257805824	0.0000000000	0.1485323459
N	1.2014071941	2.1795985699	0.0000000000	-0.3422398865
O	-1.0861779451	2.0621683598	0.0000000000	0.1172109768
O	-1.1102931499	2.1260485649	0.0000000000	0.1485352963
N	-1.2009327412	2.1798734665	0.0000000000	-0.3422413468
O	0.0002862481	2.7081284523	0.0000000000	0.1140838116
O	0.0002937574	2.7771284580	0.0000000000	0.1506429613
N	0.0003103172	2.8683857918	0.0000000000	-0.3421123624
O	2.1804928780	0.2105634362	0.0000000000	0.0749736130
O	2.1981358528	0.1691677570	0.0000000000	0.1183949262
O	2.1472454071	0.2267300934	0.0000000000	0.0319787115
O	-0.0001855456	-1.7461973429	0.0000000000	0.3035930395
N	-0.0001907312	-1.7831348181	0.0000000000	-0.1769446433
N	-0.0001896437	-1.7752931118	0.0000000000	-0.3219146132
N	0.0000205140	0.2810941935	0.0000000000	-0.4948903322
O	0.0000174547	0.2772557139	0.0000000000	0.3064546287
N	-0.0000060183	0.0610873401	0.0000000000	-0.3490227461
O	-1.1153328419	0.8211313486	0.0000000000	0.1253667921
O	-1.1160409451	0.8064287305	0.0000000000	0.1181736737
N	-1.2054381371	0.7879245877	0.0000000000	-0.2985780537
O	-2.1804633141	0.2110694796	0.0000000000	0.0749827251
O	-2.1981201172	0.1696776599	0.0000000000	0.1183925793
O	-2.1472144127	0.2272274047	0.0000000000	0.0319738984
O	-2.1813912392	2.7266383171	0.0000000000	0.0686832294
O	-2.2034587860	2.7407789230	0.0000000000	0.0942188278
O	-2.1429123878	2.7064576149	0.0000000000	0.0444860496
O	2.1819744110	2.7261662483	0.0000000000	0.0686852485
O	2.2040438652	2.7403059006	0.0000000000	0.0942188650
O	2.1434917450	2.7059943676	0.0000000000	0.0444845520
O	0.0004510997	3.9989213943	0.0000000000	0.0712637454
O	0.0004548133	4.0139484406	0.0000000000	0.1023121402
O	0.0004457837	3.9515426159	0.0000000000	0.0341303423
