36
    s                      x[A]                      y[A]                      z[A]                      q[e]
    O	-1.1160588264	-0.2032517642	0.0000000000	0.1112830937
O	-1.1128274202	-0.2112631500	0.0000000000	0.1195881516
N	-1.2048912048	-0.1856037229	0.0000000000	-0.2906463444
O	-1.0835989714	-1.4475005865	0.0000000000	0.1126441211
O	-1.1073640585	-1.5218549967	0.0000000000	0.1417963356
N	-1.2010651827	-1.5763618946	0.0000000000	-0.3344570398
O	1.0836198330	-1.4474904537	0.0000000000	0.1126473099
O	1.1073907614	-1.5218462944	0.0000000000	0.1417966336
N	1.2010917664	-1.5763467550	0.0000000000	-0.3344596624
O	0.0000196052	-2.0951766968	0.0000000000	0.1077974141
O	0.0000204588	-2.1725196838	0.0000000000	0.1469277143
N	0.0000195187	-2.2657353878	0.0000000000	-0.3356991112
O	-2.1794404984	0.3976373971	0.0000000000	0.0710718185
O	-2.1923055649	0.4401409626	0.0000000000	0.1208038479
O	-2.1445882320	0.3825176060	0.0000000000	0.0308763944
O	-0.0000224128	2.2113835812	0.0000000000	0.2176897377
N	-0.0000226095	2.2481894493	0.0000000000	-0.0788799822
N	-0.0000224613	2.2222507000	0.0000000000	-0.3022734821
N	0.0000008875	0.3257710338	0.0000000000	-0.6127508879
O	0.0000020132	0.3258154392	0.0000000000	0.3296080530
N	0.0000010524	0.5372005701	0.0000000000	-0.2557928562
O	1.1160639524	-0.2032299936	0.0000000000	0.1112849861
O	1.1128358841	-0.2112411261	0.0000000000	0.1195861250
N	1.2048993111	-0.1855843961	0.0000000000	-0.2906479537
O	2.1794450283	0.3976590931	0.0000000000	0.0710758269
O	2.1923117638	0.4401626289	0.0000000000	0.1208026707
O	2.1445934772	0.3825389743	0.0000000000	0.0308750384
O	2.1817774773	-2.1216251850	0.0000000000	0.0677150786
O	2.2043511868	-2.1361346245	0.0000000000	0.0943277627
O	2.1428725719	-2.1013476849	0.0000000000	0.0434601232
O	-2.1817436218	-2.1216676235	0.0000000000	0.0677069053
O	-2.2043094635	-2.1361753941	0.0000000000	0.0943284482
O	-2.1428363323	-2.1013884544	0.0000000000	0.0434621610
O	0.0000220480	-3.3937280178	0.0000000000	0.0719264746
O	0.0000213893	-3.4119796753	0.0000000000	0.1000241637
O	0.0000217046	-3.3467974663	0.0000000000	0.0345008187
