48
    s                      x[A]                      y[A]                      z[A]                      q[e]
    N	1.2192226648	0.7886329293	0.0000000000	-0.3241754174
O	1.1979007721	0.7627706528	0.0000000000	0.4556013346
N	1.1990877390	0.7979447246	0.0000000000	-0.2521352768
O	1.1767966747	0.6655711532	0.0000000000	0.0037600733
N	1.2168567181	2.1866111755	0.0000000000	-0.2307973504
O	1.2032192945	2.1800994873	0.0000000000	0.4076246023
N	1.1632040739	2.1432297230	0.0000000000	-0.1876578331
N	1.1837432384	2.1367113590	0.0000000000	-0.0684247166
N	-1.2163796425	2.1868929863	0.0000000000	-0.2307898402
O	-1.2027440071	2.1803758144	0.0000000000	0.4076175094
N	-1.1627361774	2.1434979439	0.0000000000	-0.1876602024
N	-1.1832735538	2.1369917393	0.0000000000	-0.0684240460
N	0.0003118466	2.8963110447	0.0000000000	-0.2062811702
O	0.0003102800	2.8717863560	0.0000000000	0.3855090737
N	0.0003048558	2.8279318810	0.0000000000	-0.2001384944
N	0.0003037249	2.8489508629	0.0000000000	-0.0715812743
O	2.0521428585	0.3018311262	0.0000000000	0.1539759040
N	2.1152925491	0.2608316839	0.0000000000	-0.0390962772
N	2.1243386269	0.2463993132	0.0000000000	-0.0998404622
O	2.2668347359	0.1685120165	0.0000000000	0.1584042013
O	-0.0001924714	-1.8014138937	0.0000000000	0.1666021347
N	-0.0001924397	-1.8048429489	0.0000000000	-0.0194268636
N	-0.0001906319	-1.7865816355	0.0000000000	-0.0034891479
N	-0.0001954461	-1.8269405365	0.0000000000	-0.3015623093
N	0.0000113059	0.1337766647	0.0000000000	-0.0043724887
N	-0.0000019349	0.0868146271	0.0000000000	-0.0108504407
N	0.0000069235	0.1642566323	0.0000000000	-0.5438927412
O	-0.0000090562	0.0255389512	0.0000000000	0.3834344149
N	-1.2190542221	0.7889018059	0.0000000000	-0.3241853118
O	-1.1977394819	0.7630326748	0.0000000000	0.4556124210
N	-1.1989188194	0.7982070446	0.0000000000	-0.2521366477
O	-1.1766507626	0.6658248901	0.0000000000	0.0037616566
O	-2.0520956516	0.3023026288	0.0000000000	0.1539754421
N	-2.1152563095	0.2613244057	0.0000000000	-0.0390895866
N	-2.1243014336	0.2468908131	0.0000000000	-0.0998535156
O	-2.2668130398	0.1690341681	0.0000000000	0.1584133208
O	-2.0464842319	2.6573450565	0.0000000000	0.1801853776
N	-2.1287329197	2.6957962513	0.0000000000	-0.0507106520
N	-2.1251170635	2.6947076321	0.0000000000	-0.1047726721
O	-2.2696907520	2.7787382603	0.0000000000	0.1334024668
O	2.0470554829	2.6568994522	0.0000000000	0.1801850200
N	2.1293072701	2.6953415871	0.0000000000	-0.0507084019
N	2.1256937981	2.6942479610	0.0000000000	-0.1047777385
O	2.2702882290	2.7782421112	0.0000000000	0.1334061027
O	0.0004303628	3.8391311169	0.0000000000	0.1737472564
N	0.0004448704	3.9182872772	0.0000000000	-0.0637496114
N	0.0004431665	3.9312927723	0.0000000000	-0.0889954865
O	0.0004596998	4.0969529152	0.0000000000	0.1343579739
