33
    s                      x[A]                      y[A]                      z[A]                      q[e]
    N	-1.2130565643	0.2697290778	0.0000000000	-0.2097626328
O	-1.1954469681	0.2786562443	0.0000000000	0.2868588865
N	-1.2097409964	0.2392361462	0.0000000000	-0.2681301832
N	-1.2460976839	0.2602394819	0.0000000000	-0.0396699049
N	-1.2245978117	-1.1487962008	0.0000000000	-0.2221614122
O	-1.1987999678	-1.1303157806	0.0000000000	0.4074677229
N	-1.1710082293	-1.1105329990	0.0000000000	-0.2150069475
N	-1.1845774651	-1.0888189077	0.0000000000	-0.0821512043
N	1.2245937586	-1.1487970352	0.0000000000	-0.2221630514
O	1.1987962723	-1.1303168535	0.0000000000	0.4074702263
N	1.1710050106	-1.1105339527	0.0000000000	-0.2150079012
N	1.1845749617	-1.0888191462	0.0000000000	-0.0821513236
O	-2.1381978989	-1.6676378250	0.0000000000	0.1309614480
N	1.2130582333	0.2697254419	0.0000000000	-0.2097629011
O	1.1954485178	0.2786533535	0.0000000000	0.2868601084
N	1.2097419500	0.2392330468	0.0000000000	-0.2681307197
N	1.2460980415	0.2602358162	0.0000000000	-0.0396695621
O	0.0000037440	1.8560565710	0.0000000000	0.1485896856
O	0.0000053734	2.2664542198	0.0000000000	0.2876758575
N	0.0000054477	2.2772419453	0.0000000000	-0.7645912766
O	0.0000064638	2.5760836601	0.0000000000	0.1532350481
N	-0.0000003911	1.0032455921	0.0000000000	-0.1446306407
O	0.0000001047	0.9181526899	0.0000000000	0.1717950553
O	-0.0000000457	0.8941096663	0.0000000000	0.2380335033
O	-0.0000023134	0.7226989269	0.0000000000	0.0115119284
O	-0.0000026641	-2.9032247066	0.0000000000	0.1304332167
O	-2.1348590851	0.7985468507	0.0000000000	0.1614576280
N	-0.0000032899	-1.8603328466	0.0000000000	-0.2170776427
O	-0.0000032640	-1.8229982853	0.0000000000	0.3856707215
N	-0.0000031241	-1.7959226370	0.0000000000	-0.2246383429
N	-0.0000034230	-1.8023790121	0.0000000000	-0.0757352561
O	2.1348569393	0.7985485792	0.0000000000	0.1614577025
O	2.1381924152	-1.6676409245	0.0000000000	0.1309620142
