19
    s                      x[A]                      y[A]                      z[A]                      q[e]
    N	-1.3545916080	0.3334219158	0.0000000000	-0.1907776594
N	-1.1527550220	0.2243861705	0.0000000000	-0.0239031576
N	-1.3325823545	-1.2058268785	0.0000000000	-0.1296542585
N	-1.1108506918	-1.0839941502	0.0000000000	-0.0168469399
N	1.3325785398	-1.2058281898	0.0000000000	-0.1296538711
N	1.1108477116	-1.0839936733	0.0000000000	-0.0168465525
O	-2.2783575058	-1.7490537167	0.0000000000	0.1560583562
N	1.3545930386	0.3334180713	0.0000000000	-0.1907779276
N	1.1527569294	0.2243808210	0.0000000000	-0.0239026286
N	0.0000049434	2.3237655163	0.0000000000	-0.0290762261
N	0.0000058997	2.6535589695	0.0000000000	-0.1033818647
O	0.0000004338	1.0197954178	0.0000000000	0.0950436369
O	-0.0000036071	0.7561019659	0.0000000000	0.1035765484
O	-0.0000026244	-3.0667643547	0.0000000000	0.1553572267
O	-2.2656764984	0.9004330635	0.0000000000	0.1687540263
N	-0.0000032536	-1.9741044044	0.0000000000	-0.1328570247
N	-0.0000038477	-1.7282326221	0.0000000000	-0.0159247592
O	2.2656736374	0.9004350901	0.0000000000	0.1687543392
O	2.2783513069	-1.7490565777	0.0000000000	0.1560588032
