36
    s                      x[A]                      y[A]                      z[A]                      q[e]
    O	0.9967399240	-0.7532562017	0.0000001672	0.1083156317
O	1.0153912306	-0.7673522234	-0.0000005894	0.1021194160
N	1.1092420816	-0.8382829428	0.0000005770	-0.3574682474
O	-0.1539761722	-1.2398183346	-0.0000007980	0.1083259732
O	-0.1568580866	-1.2630228996	0.0000002313	0.1021220833
N	-0.1713564247	-1.3797566891	-0.0000014694	-0.3574793041
O	-1.1507210732	-0.4865522385	0.0000006506	0.1083118170
O	-1.1722512245	-0.4956563115	0.0000003763	0.1021178961
N	-1.2806029320	-0.5414825082	0.0000009015	-0.3574621975
O	-0.9967454672	0.7532485723	0.0000002227	0.1083150953
O	-1.0153949261	0.7673436403	-0.0000005300	0.1021186113
N	-1.1092424393	0.8382799625	0.0000006077	-0.3574653268
O	0.1539830267	1.2398183346	-0.0000008014	0.1083254069
O	0.1568663716	1.2630228996	0.0000002479	0.1021221876
N	0.1713574678	1.3797581196	-0.0000014682	-0.3574794531
O	1.1507159472	0.4865601063	0.0000005498	0.1083129644
O	1.1722477674	0.4956647158	0.0000002077	0.1021176875
N	1.2806011438	0.5414841771	0.0000008364	-0.3574630022
O	2.0143949986	-1.5223439932	-0.0000030130	0.0417592786
O	2.0246679783	-1.5301077366	-0.0000030983	0.0900116712
O	1.9751015902	-1.4926480055	-0.0000031261	0.0152622722
O	-0.3111917973	-2.5056726933	0.0000013542	0.0417573862
O	-0.3127801120	-2.5184583664	0.0000014289	0.0900048614
O	-0.3051218688	-2.4567978382	0.0000015351	0.0152691491
O	-2.3255906105	-0.9833515882	0.0000016631	0.0417575948
O	-2.3374464512	-0.9883658886	0.0000016750	0.0900136977
O	-2.2802255154	-0.9641690254	0.0000015913	0.0152611025
O	-2.0143897533	1.5223510265	-0.0000025019	0.0417572483
O	-2.0246610641	1.5301152468	-0.0000025840	0.0900121927
O	-1.9750964642	1.4926548004	-0.0000026037	0.0152627490
O	0.3111925721	2.5056731701	0.0000013570	0.0417585969
O	0.3127806187	2.5184590816	0.0000014353	0.0900052935
O	0.3051225245	2.4567983150	0.0000015358	0.0152684189
O	2.3255925179	0.9833458066	0.0000006324	0.0417561717
O	2.3374485970	0.9883586764	0.0000006274	0.0900129974
O	2.2802274227	0.9641633630	0.0000005443	0.0152621232
