12
Properties=species:S:1:pos:R:3 pbc="F F F"
C        1.21470358       0.77762666       0.00000000
C        1.20597269       2.17201388      -0.00000000
C       -1.20549907       2.17229116      -0.00000000
C        0.00031010       2.87206530      -0.00000000
H        2.15349268       0.22552783       0.00000000
Cl      -0.00019262      -1.80138201       0.00000000
C        0.00000000       0.09666847       0.00000000
C       -1.21453900       0.77789337      -0.00000000
H       -2.15346199       0.22602631      -0.00000000
H       -2.15341701       2.71184109      -0.00000000
H        2.15399752       2.71137595      -0.00000000
H        0.00044715       3.96225353      -0.00000000
