19
    s                      x[A]                      y[A]                      z[A]                      q[e]
    O	-1.0966556072	0.3105280399	0.0000000000	0.0509151146
N	-1.2217236757	0.2627184391	0.0000000000	-0.2335769534
O	-1.2401341200	-1.1750873327	0.0000000000	0.0749478415
N	-1.2018805742	-1.1265410185	0.0000000000	-0.1974980682
O	1.2401289940	-1.1750910282	0.0000000000	0.0749478862
N	1.2018767595	-1.1265420914	0.0000000000	-0.1974976957
O	-2.2027478218	-1.6997890472	0.0000000000	0.1330568939
O	1.0966559649	0.3105294108	0.0000000000	0.0509157106
N	1.2217249870	0.2627148926	0.0000000000	-0.2335770726
O	0.0000059673	2.3543910980	0.0000000000	0.0408312604
N	0.0000054386	2.4071383476	0.0000000000	-0.1783688068
O	0.0000006600	0.7768847346	0.0000000000	0.0868307874
O	-0.0000001955	0.9205713272	0.0000000000	0.1056807265
O	-0.0000028142	-2.9774007797	0.0000000000	0.1325557232
O	-2.1882643700	0.8938422203	0.0000000000	0.1456534863
O	-0.0000010694	-1.8632876873	0.0000000000	0.0745570287
N	-0.0000033677	-1.8326747417	0.0000000000	-0.2090846151
O	2.1882610321	0.8938449621	0.0000000000	0.1456537545
O	2.2027428150	-1.6997911930	0.0000000000	0.1330571771
