24
    s                      x[A]                      y[A]                      z[A]                      q[e]
    O	-1.4449346066	-0.1454460472	0.0000000000	0.0663860217
N	-1.1992632151	-0.1814447045	0.0000000000	-0.1371295750
O	-1.3243993521	-1.7054220438	0.0000000000	0.1003953740
N	-1.2030594349	-1.5713407993	0.0000000000	-0.1908115298
O	1.3244373798	-1.7054021358	0.0000000000	0.1003932878
N	1.2030843496	-1.5713258982	0.0000000000	-0.1908115298
O	0.0000182102	-2.4132034779	0.0000000000	0.1064674780
N	0.0000200646	-2.2725837231	0.0000000000	-0.1981984228
O	-2.1288838387	0.4000924528	0.0000000000	0.0208431780
O	-2.2539606094	0.4421289265	0.0000000000	0.1442979872
N	-0.0000204755	2.0803568363	0.0000000000	-0.0711622760
N	-0.0000234716	2.3143162727	0.0000000000	-0.0028273910
N	-0.0000059222	0.8093032241	0.0000000000	-0.2568926811
N	0.0000025461	0.3085364699	0.0000000000	-0.0486335382
O	1.4449446201	-0.1454268843	0.0000000000	0.0663853511
N	1.1992708445	-0.1814248115	0.0000000000	-0.1371300817
O	2.1288883686	0.4001134634	0.0000000000	0.0208408162
O	2.2539620399	0.4421497583	0.0000000000	0.1443018019
O	2.1627016068	-2.1150422096	0.0000000000	0.0415086821
O	2.2407586575	-2.1568734646	0.0000000000	0.1120048985
O	-2.1626663208	-2.1150827408	0.0000000000	0.0415147021
O	-2.2407288551	-2.1569199562	0.0000000000	0.1119948551
O	0.0000218995	-3.3717241287	0.0000000000	0.0380837545
O	0.0000223706	-3.4590101242	0.0000000000	0.1181788966
