9
Properties=species:S:1:pos:R:3 pbc="F F F"
C       -1.36500202      -0.33007733      -0.00885472
C        0.04439425       0.11851554      -0.00097104
N        1.03813044      -0.79719668      -0.02544442
H        0.88275508      -1.73662609       0.23333266
H        1.98820954      -0.50397600      -0.11591040
O        0.36211741       1.29697049       0.02536980
H       -1.79370894      -0.31556835       1.02160054
H       -1.85147443       0.39375531      -0.71672844
H       -1.46598592      -1.36360340      -0.38818626
