36
    s                      x[A]                      y[A]                      z[A]                      q[e]
    N	-1.2534878254	-0.2864897549	-0.0029151221	-0.0146696744
O	-1.3544527292	-0.3201460540	-0.0102856224	0.0091914134
N	-1.3869400024	-0.3504987061	-0.0095304651	-0.6159726381
O	-1.1947127581	-0.3226745725	-0.0047807670	0.0597447529
N	0.0732580870	0.1900260448	0.0179658011	-0.1147578731
O	0.0362280421	0.1065892950	-0.0037475505	0.4547141492
O	0.0313970894	0.1558172703	-0.0058445060	0.4044081867
O	0.0969816893	0.6987958550	-0.0007906794	0.0608596951
O	1.2133612633	-0.9372014403	0.0615137964	0.0075007780
O	1.0538728237	-0.7989611030	-0.0343815163	0.3104489744
N	1.0389289856	-0.8207362890	-0.0167696849	-1.2799897194
O	0.7227597237	-0.7400830388	-0.0506486706	0.0281659365
O	0.8386004567	-1.6292569637	0.2185930759	0.0052589709
O	0.8988084793	-1.7534078360	0.2432902008	0.0294034369
O	0.8904290199	-1.6736085415	0.2214550227	0.2323734611
O	0.9332159162	-1.9942654371	0.2818823159	0.1488742381
O	1.8848578930	-0.4895650148	-0.1117604375	0.0282891318
O	1.9999365807	-0.5248003006	-0.1098913699	0.0240214281
O	1.9280176163	-0.5158422589	-0.1085238233	0.2699765265
O	2.2649149895	-0.5279429555	-0.1341429949	0.1094827056
O	0.3794855475	1.2935156822	0.0215961393	0.0339945741
N	0.3700541556	1.3051435947	0.0247514285	-0.4290162921
N	0.3708063662	1.3272010088	0.0241288897	-0.2399039865
O	0.5588063598	1.8163675070	0.0498558506	0.0272256024
N	-1.7543662786	-0.3180605769	1.0500465631	-0.0208591111
N	-1.9087734222	-0.3689929843	1.1021124125	-0.0782771632
O	-1.7847938538	-0.3158957958	0.9906378984	0.2160370946
O	-1.8056478500	-0.3113089204	1.1268868446	0.0370627902
N	-1.8419666290	0.3893020153	-0.7335928082	-0.0048113121
N	-1.9834978580	0.3851557374	-0.8041741848	-0.0490377583
O	-1.8468443155	0.3651562631	-0.6951540709	0.1349389404
O	-1.8974676132	0.4602226615	-0.7886820436	0.0625877902
N	-1.4350115061	-1.3677570820	-0.3884396553	-0.0581011660
N	-1.5545206070	-1.4764274359	-0.4014886022	-0.0551644377
O	-1.4617049694	-1.3368369341	-0.3777869642	0.1476368159
O	-1.4653872252	-1.4416360855	-0.4246224463	0.1183637902
