24
s                      x[A]                      y[A]                      z[A]                      q[e]
N       -0.6677971036309909       -0.1091302881606243        0.0000000000000000        0.0931660623910736
O       -1.7784176057527312       -0.1696786464418130        0.0000000000000000       -0.1392821070677752
N       -1.5224479856591859       -1.1024919373260411        0.0000000000000000        0.0746541708293865
O       -1.4778698123451912       -1.4937487121128055        0.0000000000000000       -0.1647858687888477
N        0.9880143495540179       -1.5147956142024555        0.0000000000000000        0.0565105200128175
O        1.2021174029507096       -1.8138665268147880        0.0000000000000000       -0.2274507543386193
N        0.0000233307780907       -2.8190724433293237        0.0000000000000000        0.0981264138814740
O        0.0000161865242513       -2.4590253424544182        0.0000000000000000       -0.2257530862338435
N       -2.1672236152260576        0.4839460028934647        0.0000000000000000        0.0163618165339227
N       -2.2793718502865499        0.3172050823623819        0.0000000000000000        0.1462447312503916
O       -0.0000222081600894        1.8815723598379983        0.0000000000000000       -0.0861026983395661
O       -0.0000204723641369        2.5950649800170367        0.0000000000000000       -0.0021179670531710
O       -0.0000083792781878        1.0326644368947642        0.0000000000000000       -0.0852588501563246
O        0.0000021982495239        0.2756784787495551        0.0000000000000000       -0.0363770158204756
N        1.2116984577209040       -0.1042402479266132        0.0000000000000000        0.0527661539338172
O        1.7729978306659528       -0.1552137303340807        0.0000000000000000       -0.1273777036600367
N        2.5236342973516246        0.4907283673156393        0.0000000000000000        0.0192485738318655
N        2.1749032242534434        0.3677922308199510        0.0000000000000000        0.1382682710351145
N        2.3320086207521209       -1.7512936263822680        0.0000000000000000        0.0429240686299851
N        2.0719772911333614       -2.3166641368669070        0.0000000000000000        0.1232600153378792
N       -2.4442626313878768       -2.3797054419608070        0.0000000000000000        0.0329539773356125
N       -2.3632263020525444       -2.0948922102162300        0.0000000000000000        0.0809849302837605
N        0.0000185179156857       -3.7118423464528094        0.0000000000000000        0.0402320330967080
N        0.0000191182602709       -3.3988324117390478        0.0000000000000000        0.0788043724748513

        RMSE         1.053026864E+00 kcal/mol
         MAE         6.216322756E-01 kcal/mol
     max. AE         1.092859980E+01 kcal/mol

Coordinates in bohr
s                   x[bohr]                   y[bohr]                   z[bohr]                      q[e]
+       -1.2619536332365522       -0.2062263566158729        0.0000000000000000        0.0931660623910736
-       -3.3607222115650961       -0.3206461711134160        0.0000000000000000       -0.1392821070677752
+       -2.8770097331508087       -2.0834078170716346        0.0000000000000000        0.0746541708293865
-       -2.7927691944141659       -2.8227759661485528        0.0000000000000000       -0.1647858687888477
+        1.8670765286794506       -2.8625488468873170        0.0000000000000000        0.0565105200128175
-        2.2716726622234713       -3.4277109638153571        0.0000000000000000       -0.2274507543386193
+        0.0000440887808853       -5.3272748457176560        0.0000000000000000        0.0981264138814740
-        0.0000305880977580       -4.6468844327989967        0.0000000000000000       -0.2257530862338435
+       -4.0954590854018447        0.9145254049786699        0.0000000000000000        0.0163618165339227
+       -4.3073885351196424        0.5994307312681951        0.0000000000000000        0.1462447312503916
-       -0.0000419673403192        3.5556564453252029        0.0000000000000000       -0.0861026983395661
-       -0.0000386871613594        4.9039620899988909        0.0000000000000000       -0.0021179670531710
-       -0.0000158345409039        1.9514529652312325        0.0000000000000000       -0.0852588501563246
-        0.0000041540895555        0.5209568235195050        0.0000000000000000       -0.0363770158204756
+        2.2897782317321500       -0.1969855198311223        0.0000000000000000        0.0527661539338172
-        3.3504803209895058       -0.2933114412420785        0.0000000000000000       -0.1273777036600367
+        4.7689776628067744        0.9273422162196291        0.0000000000000000        0.0192485738318655
+        4.1099714432141976        0.6950265873208773        0.0000000000000000        0.1382682710351145
+        4.4068576154281596       -3.3094653191223529        0.0000000000000000        0.0429240686299851
+        3.9154696184100533       -4.3778607433486041        0.0000000000000000        0.1232600153378792
+       -4.6189869520139677       -4.4969915445675044        0.0000000000000000        0.0329539773356125
+       -4.4658504833577854       -3.9587725396637024        0.0000000000000000        0.0809849302837605
+        0.0000349937890603       -7.0143654556725608        0.0000000000000000        0.0402320330967080
+        0.0000361282759072       -6.4228624045161169        0.0000000000000000        0.0788043724748513
