24
    s                      x[A]                      y[A]                      z[A]                      q[e]
    N	-1.3422520161	-0.0706521496	0.0000000000	-0.1979839802
O	-1.1371743679	-0.2460826337	0.0000000000	0.0249621496
N	-1.3351056576	-1.6394566298	0.0000000000	-0.1246071905
O	-1.1118522882	-1.5521968603	0.0000000000	0.0215994418
N	1.3351321220	-1.6394408941	0.0000000000	-0.1246077418
O	1.1118782759	-1.5521868467	0.0000000000	0.0215965584
N	0.0000208858	-2.4135358334	0.0000000000	-0.1296325624
O	0.0000213912	-2.1893606186	0.0000000000	0.0142861530
O	-2.2771992683	0.4472002685	0.0000000000	0.1451870054
O	-2.3298728466	0.4466305971	0.0000000000	0.0287271515
O	-0.0000240875	2.3887751102	0.0000000000	0.0600260198
N	-0.0000225351	2.2324700356	0.0000000000	-0.1137981862
N	-0.0000023956	0.7627364397	0.0000000000	-0.2872558236
O	0.0000028332	0.4110719860	0.0000000000	0.1713905483
N	1.3422564268	-0.0706285760	0.0000000000	-0.1979847997
O	1.1371862888	-0.2460614890	0.0000000000	0.0249614641
O	2.2772035599	0.4472218156	0.0000000000	0.1451857239
O	2.3298742771	0.4466531873	0.0000000000	0.0287297294
O	2.2875938416	-2.1867530346	0.0000000000	0.1275400966
O	2.2756419182	-2.1830358505	0.0000000000	0.0352294594
O	-2.2875571251	-2.1867978573	0.0000000000	0.1275440603
O	-2.2756137848	-2.1830821037	0.0000000000	0.0352213010
O	0.0000222568	-3.5071544647	0.0000000000	0.1281890124
O	0.0000234591	-3.5019278526	0.0000000000	0.0354943871
