33
    s                      x[A]                      y[A]                      z[A]                      q[e]
    O	-1.1427108049	0.2131270021	0.0000000000	0.4813411534
N	-1.1900919676	0.2398789078	0.0000000000	-0.7061170936
N	-1.6304073334	0.4188265800	0.0000000000	-0.0281904377
N	-1.0925980806	0.1733035594	0.0000000000	-0.0035193376
O	-1.0933489799	-1.0811591148	0.0000000000	0.5230689645
N	-1.1837396622	-1.1202979088	0.0000000000	-0.6471008658
N	-1.5501503944	-1.3153376579	0.0000000000	-0.0418316089
O	-1.0655940771	-1.0655972958	0.0000000000	0.0020763017
O	1.0933431387	-1.0811629295	0.0000000000	0.5230696797
N	1.1837358475	-1.1202988625	0.0000000000	-0.6471018195
N	1.5501443148	-1.3153402805	0.0000000000	-0.0418316163
O	1.0655920506	-1.0655975342	0.0000000000	0.0020762645
O	-2.1467320919	-1.6718599796	0.0000000000	0.1833195239
O	1.1427096128	0.2131264508	0.0000000000	0.4813394845
N	1.1900928020	0.2398759425	0.0000000000	-0.7061150670
N	1.6304113865	0.4188222289	0.0000000000	-0.0281906016
N	1.0925996304	0.1732992083	0.0000000000	-0.0035192296
N	0.0000052925	2.2413303852	0.0000000000	-0.0109554343
N	0.0000050994	2.2669615746	0.0000000000	-0.2036354691
N	0.0000035067	1.9064646959	0.0000000000	-0.0814798772
O	0.0000053958	2.2508761883	0.0000000000	0.0749130994
O	0.0000027191	0.9356388450	0.0000000000	0.3916561306
N	-0.0000000007	0.8962571621	0.0000000000	-0.1119327098
N	0.0000017813	1.4072697163	0.0000000000	-0.0107619278
O	-0.0000000450	0.7869172692	0.0000000000	0.0371126272
O	-0.0000025555	-2.9140119553	0.0000000000	0.1823707670
O	-2.1322834492	0.8233104348	0.0000000000	0.1924043298
O	-0.0000013711	-1.6978882551	0.0000000000	0.5315062404
N	-0.0000031091	-1.8060122728	0.0000000000	-0.6655626893
N	-0.0000035718	-2.2442455292	0.0000000000	-0.0462851040
O	-0.0000034585	-1.6695230007	0.0000000000	0.0021513663
O	2.1322813034	0.8233122826	0.0000000000	0.1924046576
O	2.1467266083	-1.6718633175	0.0000000000	0.1833203137
