24
    s                      x[A]                      y[A]                      z[A]                      q[e]
    N	1.1369638443	-0.8592351079	0.0000015777	-0.0940330774
O	0.9680034518	-0.7315427661	0.0000018431	0.0738787651
N	1.2078185081	-0.9127762914	0.0000059103	-0.1041273475
N	-0.1756400764	-1.4142394066	-0.0000029322	-0.0940436572
O	-0.1495358944	-1.2040712833	-0.0000029256	0.0738852769
N	-0.1865848154	-1.5023823977	-0.0000080467	-0.1041239500
N	-1.3126076460	-0.5550197959	0.0000013549	-0.0940277725
O	-1.1175477505	-0.4725305438	0.0000010479	0.0738767385
N	-1.3944065571	-0.5895958543	0.0000022255	-0.1041287482
N	-1.1369625330	0.8592352271	0.0000015446	-0.0940307826
O	-0.9680089951	0.7315370440	0.0000017445	0.0738783330
N	-1.2078235149	0.9127700925	0.0000052369	-0.1041276157
N	0.1756374687	1.4142411947	-0.0000029288	-0.0940438956
O	0.1495413035	1.2040711641	-0.0000029142	0.0738849491
N	0.1865888238	1.5023820400	-0.0000079466	-0.1041240394
N	1.3126069307	0.5550180078	0.0000014109	-0.0940287858
O	1.1175433397	0.4725366533	0.0000012109	0.0738773942
N	1.3944033384	0.5896024108	0.0000032721	-0.1041281819
O	2.0870327950	-1.5772376060	-0.0000045733	0.1242819577
O	-0.3224145174	-2.5960307121	0.0000030747	0.1242802888
O	-2.4094457626	-1.0188081264	0.0000014900	0.1242815554
O	-2.0870258808	1.5772446394	-0.0000038802	0.1242811680
O	0.3224161863	2.5960311890	0.0000030679	0.1242810041
O	2.4094476700	1.0188019276	0.0000001242	0.1242804453
