5
Properties=species:S:1:pos:R:3 pbc="F F F"
C       -0.00001376       0.76780249      -0.00000000
H       -0.00000370       1.37743450       0.90647385
H       -0.00000423       1.37743450      -0.90647385
Cl      -1.47556032      -0.21652177       0.00000000
Cl       1.47556561      -0.21651806      -0.00000000
