2
s                      x[A]                      y[A]                      z[A]                      q[e]
O       -0.3675941688266743       -0.0418920730840000        0.4645897115250583       -0.1552122362633599
O        0.3670154883589353       -0.0040071591053183        0.4677013772022853       -0.1662343759253839

        RMSE         1.391593387E+00 kcal/mol
         MAE         1.023118476E+00 kcal/mol
     max. AE         6.796801333E+00 kcal/mol

Coordinates in bohr
s                   x[bohr]                   y[bohr]                   z[bohr]                      q[e]
-       -0.6946523043977220       -0.0791645449564235        0.8779473154878186       -0.1552122362633599
-        0.6935587567995434       -0.0075724332501862        0.8838275114117649       -0.1662343759253839
