4
s                      x[A]                      y[A]                      z[A]                      q[e]
O       -0.3307820856905456        0.5985844156335635       -0.3165933463688096       -0.9387761164365100
N        0.1211284370887480        1.0060984826629240       -0.6271636530523871        0.1281117031157605
O        0.2992467228736658        0.3781636555333102       -0.0369787351762447       -0.0761496347008979
N       -0.2924554391759435        0.6464491238243608       -0.3611629540972211        0.9999487372044569

        RMSE         7.350446518E-02 kcal/mol
         MAE         4.724616937E-02 kcal/mol
     max. AE         6.579524962E-01 kcal/mol

Coordinates in bohr
s                   x[bohr]                   y[bohr]                   z[bohr]                      q[e]
-       -0.6250875491628540        1.1311606085146522       -0.5982747177792587       -0.9387761164365100
+        0.2288995721024820        1.9012505874716075       -1.1851675401106649        0.1281117031157605
-        0.5654943501720050        0.7146257395599310       -0.0698796819489360       -0.0761496347008979
+       -0.5526606839430233        1.2216117980702172       -0.6824990699050451        0.9999487372044569
