1
s                      x[A]                      y[A]                      z[A]                      q[e]
O        0.0128137788105441       -0.0233829834470651        0.4818284977235296       -0.3214466121887439

        RMSE         1.769743555E+00 kcal/mol
         MAE         1.263053006E+00 kcal/mol
     max. AE         9.011361691E+00 kcal/mol

Coordinates in bohr
s                   x[bohr]                   y[bohr]                   z[bohr]                      q[e]
-        0.0242145325841232       -0.0441874347110669        0.9105239001382516       -0.3214466121887439
