3
s                      x[A]                      y[A]                      z[A]                      q[e]
O       -0.0505207781041612        0.5038553879680082       -0.4082781189128518       -0.9999955367112527
N       -0.0512328549639097        0.3631883857663577       -0.4907917169326514        0.4386021597289357
N       -0.0256387854612848        0.7847384713319357       -0.4963938511558967        0.6745280661651265

        RMSE         9.818969011E-02 kcal/mol
         MAE         6.480266575E-02 kcal/mol
     max. AE         9.900882868E-01 kcal/mol

Coordinates in bohr
s                   x[bohr]                   y[bohr]                   z[bohr]                      q[e]
-       -0.0954704342618912        0.9521486900958350       -0.7715338277623938       -0.9999955367112527
+       -0.0968160645070919        0.6863265810455421       -0.9274619296459345        0.4386021597289357
+       -0.0484502827111982        1.4829407909277978       -0.9380484290459226        0.6745280661651265
