36
    s                      x[A]                      y[A]                      z[A]                      q[e]
    N	1.1369638443	-0.8592351079	0.0000015777	-0.0940330774
O	0.9680034518	-0.7315427661	0.0000018431	0.0738787651
N	1.2078185081	-0.9127762914	0.0000059103	-0.1041273475
N	-0.1756400764	-1.4142394066	-0.0000029322	-0.0940436572
O	-0.1495358944	-1.2040712833	-0.0000029256	0.0738852769
N	-0.1865848154	-1.5023823977	-0.0000080467	-0.1041239500
N	-1.3126076460	-0.5550197959	0.0000013549	-0.0940277725
O	-1.1175477505	-0.4725305438	0.0000010479	0.0738767385
N	-1.3944065571	-0.5895958543	0.0000022255	-0.1041287482
N	-1.1369625330	0.8592352271	0.0000015446	-0.0940307826
O	-0.9680089951	0.7315370440	0.0000017445	0.0738783330
N	-1.2078235149	0.9127700925	0.0000052369	-0.1041276157
N	0.1756374687	1.4142411947	-0.0000029288	-0.0940438956
O	0.1495413035	1.2040711641	-0.0000029142	0.0738849491
N	0.1865888238	1.5023820400	-0.0000079466	-0.1041240394
N	1.3126069307	0.5550180078	0.0000014109	-0.0940287858
O	1.1175433397	0.4725366533	0.0000012109	0.0738773942
N	1.3944033384	0.5896024108	0.0000032721	-0.1041281819
O	2.0388910770	-1.5408562422	-0.0000034807	0.0281905904
O	2.0255334377	-1.5307612419	-0.0000045975	0.0930097103
O	2.1966733932	-1.6600954533	-0.0000056418	0.0030816570
O	-0.3149765730	-2.5361475945	0.0000018558	0.0281873271
O	-0.3129138947	-2.5195353031	0.0000030582	0.0930155218
O	-0.3393530250	-2.7324092388	0.0000043102	0.0030774400
O	-2.3538682461	-0.9953083992	0.0000016259	0.0281916708
O	-2.3384451866	-0.9887841940	0.0000015209	0.0930055827
O	-2.5360231400	-1.0723315477	0.0000013232	0.0030843019
O	-2.0388851166	1.5408627987	-0.0000029160	0.0281902254
O	-2.0255270004	1.5307670832	-0.0000038757	0.0930082053
O	-2.1966652870	1.6601041555	-0.0000048489	0.0030827373
O	0.3149770796	2.5361478329	0.0000018568	0.0281877071
O	0.3129179180	2.5195350647	0.0000030437	0.0930156708
O	0.3393535316	2.7324101925	0.0000043033	0.0030776262
O	2.3538711071	0.9953029752	0.0000004937	0.0281915292
O	2.3384466171	0.9887796044	0.0000001209	0.0930056572
O	2.5360248089	1.0723233223	-0.0000002420	0.0030832589
