20
    s                      x[A]                      y[A]                      z[A]                      q[e]
    N	-0.0000180852	0.4195161760	0.0000000342	-0.2734750509
O	-0.0000136531	0.7248032093	0.0000000118	0.6279126406
N	-0.0000141182	0.7209759355	-0.0000000055	-0.1421247423
N	0.0000044859	1.3422697783	-0.0000000338	-0.5694793463
N	-0.0000053582	1.3393194675	0.8508732319	-0.0006491095
O	-0.0000021275	1.4486603737	1.1134847403	0.1838031113
O	-0.0000037195	1.3758289814	0.9049173594	0.0780340284
N	-0.0000026537	1.4480834007	0.9071685076	-0.0148493275
N	-0.0000058101	1.3393195868	-0.8508732915	-0.0006492063
O	-0.0000027983	1.4486603737	-1.1134846210	0.1838030219
O	-0.0000042470	1.3758289814	-0.9049173594	0.0780341178
N	-0.0000031806	1.4480834007	-0.9071685076	-0.0148492083
O	-1.4753730297	-0.2212017775	-0.0000000015	0.2028858364
N	-1.4675698280	-0.2043221593	-0.0000000080	-0.0925551727
O	-1.4678806067	-0.1990665644	0.0000000027	0.1405139863
N	-1.4681894779	-0.1787163317	0.0000000341	-0.3185965419
O	1.4753763676	-0.2211986482	0.0000000009	0.2028928995
N	1.4675717354	-0.2043163031	0.0000000139	-0.0925581679
O	1.4678859711	-0.1990624964	0.0000000006	0.1405117810
N	1.4681921005	-0.1787128299	-0.0000000157	-0.3186054826
