24
    s                      x[A]                      y[A]                      z[A]                      q[e]
    O	1.4521592855	0.7540885210	0.0000000000	0.0598665476
N	1.2029414177	0.7911458015	0.0000000000	-0.1382862926
O	1.3255656958	2.3075931072	0.0000000000	0.0994333029
N	1.2036298513	2.1771278381	0.0000000000	-0.1923755705
O	-1.3250749111	2.3078720570	0.0000000000	0.0994321406
N	-1.2031543255	2.1774070263	0.0000000000	-0.1923762858
O	0.0003394294	3.0179598331	0.0000000000	0.1064056456
N	0.0003091875	2.8771076202	0.0000000000	-0.2000317574
O	2.1333677769	0.2091393322	0.0000000000	0.0250591636
O	2.2629010677	0.1660502404	0.0000000000	0.1363090277
N	-0.0001776103	-1.6519143581	0.0000000000	-0.0654132664
N	-0.0001979290	-1.8506056070	0.0000000000	-0.0300111696
N	-0.0000283357	-0.3233300447	0.0000000000	-0.1986981928
N	0.0000180904	0.3037349880	0.0000000000	-0.0531812496
O	-1.4520082474	0.7544177175	0.0000000000	0.0598668158
N	-1.2027730942	0.7914112806	0.0000000000	-0.1382840425
O	-2.1333365440	0.2096294463	0.0000000000	0.0250545293
O	-2.2628800869	0.1665764749	0.0000000000	0.1363156438
O	-2.1640250683	2.7236959934	0.0000000000	0.0430800542
O	-2.2392797470	2.7601091862	0.0000000000	0.1098575890
O	2.1646099091	2.7232248783	0.0000000000	0.0430785939
O	2.2398698330	2.7596247196	0.0000000000	0.1098591983
O	0.0004470444	3.9759585857	0.0000000000	0.0387910381
O	0.0004586434	4.0622248650	0.0000000000	0.1162485778
