4
s                      x[A]                      y[A]                      z[A]                      q[e]
O        0.3563204871238761        0.0002337518175367        0.1087491661654607       -0.4195374040510035
O       -0.3518078858579496        0.0008621762346760        0.1091426027926564       -0.4245569628976397
N        0.0000187919287543        0.7736821710959185       -0.4083821115321587        0.4225492061174074
N        0.0001750605784422       -0.7744390582506643       -0.4091164434292677        0.4215451608312358

        RMSE         3.016059720E-01 kcal/mol
         MAE         1.937668924E-01 kcal/mol
     max. AE         2.331242544E+00 kcal/mol

Coordinates in bohr
s                   x[bohr]                   y[bohr]                   z[bohr]                      q[e]
-        0.6733481335538484        0.0004417269164724        0.2055061404246256       -0.4195374040510035
-       -0.6648205530478530        0.0016292769554161        0.2062496278977493       -0.4245569628976397
+        0.0000355115987147        1.4620474115208906       -0.7717303453319529        0.4225492061174074
+        0.0003308165486201       -1.4634777209512371       -0.7731180315026768        0.4215451608312358
