3
s                      x[A]                      y[A]                      z[A]                      q[e]
O       -0.0004736216740211       -0.0000135661396071       -0.0087801953213309       -0.9999999791535648
N       -0.0002254526476891        0.7611756716250238       -0.4482248986466633        0.5000610830823720
N       -0.0003676868913515       -0.7615858732254590       -0.4474453423611492        0.4999388960711928

        RMSE         6.853415862E-01 kcal/mol
         MAE         4.548938901E-01 kcal/mol
     max. AE         4.835044440E+00 kcal/mol

Coordinates in bohr
s                   x[bohr]                   y[bohr]                   z[bohr]                      q[e]
-       -0.0008950152509808       -0.0000256362884371       -0.0165921644853415       -0.9999999791535648
+       -0.0004260437583918        1.4384135527327162       -0.8470223010532867        0.5000610830823720
+       -0.0006948275245754       -1.4391887214137633       -0.8455491531742860        0.4999388960711928
