12
Properties=species:S:1:pos:R:3 pbc="F F F"
C       -1.21448873      -0.17403150       0.00000000
C       -1.20551336      -1.56774190      -0.00000000
C        1.20553982      -1.56772708      -0.00000000
C        0.00001958      -2.26830239      -0.00000000
H       -2.15068275       0.38269869       0.00000000
Cl      -0.00002275       2.25137931       0.00000000
C       -0.00000000       0.50734422       0.00000000
C        1.21449667      -0.17401139      -0.00000000
H        2.15068804       0.38272039      -0.00000000
H        2.15372658      -2.10680445      -0.00000000
H       -2.15369006      -2.10684520      -0.00000000
H        0.00002170      -3.35840172      -0.00000000
