30
    s                      x[A]                      y[A]                      z[A]                      q[e]
    N	1.1338530779	-0.8568820357	0.0000031797	-0.2090916336
O	1.1076312065	-0.8370665908	0.0000013252	0.3630248606
N	1.0869783163	-0.8214560747	0.0000004670	-0.2045732439
N	1.0952154398	-0.8276788592	0.0000012269	-0.0780222565
N	-0.1751577407	-1.4103682041	-0.0000047737	-0.2090945244
O	-0.1711071432	-1.3777529001	-0.0000024493	0.3630215824
N	-0.1679175794	-1.3520659208	-0.0000013033	-0.2045753002
N	-0.1691890806	-1.3623083830	-0.0000022605	-0.0780172646
N	-1.3090178967	-0.5534955859	0.0000015917	-0.2090905905
O	-1.2787442207	-0.5406961441	0.0000011270	0.3630316556
N	-1.2548983097	-0.5306105614	0.0000008315	-0.2045737505
N	-1.2644084692	-0.5346272588	0.0000010544	-0.0780263394
N	-1.1338549852	0.8568779826	0.0000030330	-0.2090919614
O	-1.1076325178	0.8370627165	0.0000013222	0.3630305827
N	-1.0869792700	0.8214519024	0.0000005093	-0.2045744658
N	-1.0952177048	0.8276722431	0.0000011378	-0.0780247301
N	0.1751600504	1.4103690386	-0.0000047807	-0.2090947032
O	0.1711095124	1.3777540922	-0.0000024545	0.3630200922
N	0.1679202914	1.3520669937	-0.0000013045	-0.2045750916
N	0.1691939682	1.3623092175	-0.0000022327	-0.0780164450
N	1.3090156317	0.5534989238	0.0000019062	-0.2090896368
O	1.2787417173	0.5406988263	0.0000011487	0.3630295098
N	1.2548959255	0.5306136608	0.0000007503	-0.2045725584
N	1.2644048929	0.5346328616	0.0000011493	-0.0780260861
O	1.9698823690	-1.4887038469	-0.0000029202	0.1286631823
O	-0.3043158352	-2.4503097534	0.0000013134	0.1286603659
O	-2.2741987705	-0.9616209269	0.0000016038	0.1286631525
O	-1.9698776007	1.4887104034	-0.0000024098	0.1286624521
O	0.3043161035	2.4503097534	0.0000013104	0.1286611557
O	2.2742013931	0.9616159201	0.0000005919	0.1286620200
