48
    s                      x[A]                      y[A]                      z[A]                      q[e]
    O	-1.1213544607	-0.2216436565	0.0000000000	0.5526926517
N	-1.1797447205	-0.1966912746	0.0000000000	-0.6742714643
N	-1.5798900127	0.1688702106	0.0000000000	-0.0634737462
O	-1.1349376440	-0.2678811550	0.0000000000	0.0171433762
O	-1.1212407351	-1.5471124649	0.0000000000	0.5166016817
N	-1.1816051006	-1.5561398268	0.0000000000	-0.6239566803
N	-1.5644460917	-1.7761471272	0.0000000000	-0.0442545041
O	-1.0740151405	-1.4882608652	0.0000000000	0.0189279988
O	1.1212629080	-1.5470873117	0.0000000000	0.5166068673
N	1.1816318035	-1.5561256409	0.0000000000	-0.6239665747
N	1.5644714832	-1.7761257887	0.0000000000	-0.0442547798
O	1.0740456581	-1.4882556200	0.0000000000	0.0189268030
O	0.0000164291	-2.1675198078	0.0000000000	0.5143285990
N	0.0000195376	-2.2427186966	0.0000000000	-0.6258095503
N	0.0000227016	-2.7084946632	0.0000000000	-0.0450877696
O	0.0000195124	-2.0917289257	0.0000000000	0.0128883198
O	-2.1712415218	0.4075343609	0.0000000000	0.1732536256
O	-2.1393957138	0.4192875326	0.0000000000	0.0554356351
O	-1.9848537445	0.3600055575	0.0000000000	0.0155262873
N	-2.2156729698	0.4013353884	0.0000000000	-0.0112355538
N	-0.0000193652	1.8969644308	0.0000000000	-1.1238729954
O	-0.0000240535	2.4194417000	0.0000000000	0.1611823738
O	-0.0000228720	2.2368845940	0.0000000000	0.5924471617
O	-0.0000256492	2.3866591454	0.0000000000	0.1768879890
N	-0.0000002416	0.2827966809	0.0000000000	-0.0511387289
N	0.0000002806	0.6192375422	0.0000000000	-0.1535666585
O	-0.0000053912	1.2789328098	0.0000000000	0.0747530982
N	0.0000037392	0.0515924096	0.0000000000	-0.0276970714
O	1.1213636398	-0.2216320187	0.0000000000	0.5526930094
N	1.1797534227	-0.1966720223	0.0000000000	-0.6742730141
N	1.5798933506	0.1688981801	0.0000000000	-0.0634751618
O	1.1349442005	-0.2678578198	0.0000000000	0.0171428844
O	2.1712477207	0.4075562358	0.0000000000	0.1732522547
O	2.1393985748	0.4193092287	0.0000000000	0.0554374978
O	1.9848561287	0.3600295186	0.0000000000	0.0155255534
N	2.2156813145	0.4013570845	0.0000000000	-0.0112325959
O	2.1825234890	-2.1229231358	0.0000000000	0.1387262940
O	2.1648287773	-2.1138153076	0.0000000000	0.0701378658
O	2.0417087078	-2.0497937202	0.0000000000	0.0039015487
N	2.2071294785	-2.1406860352	0.0000000000	-0.0027273372
O	-2.1824839115	-2.1229636669	0.0000000000	0.1387276053
O	-2.1647944450	-2.1138551235	0.0000000000	0.0701329410
O	-2.0416786671	-2.0498287678	0.0000000000	0.0039042085
N	-2.2070863247	-2.1407275200	0.0000000000	-0.0027343631
O	0.0000214739	-3.3879981041	0.0000000000	0.1397370398
O	0.0000224421	-3.3715422153	0.0000000000	0.0653926954
O	0.0000231984	-3.2228567600	0.0000000000	0.0099162459
N	0.0000210753	-3.4161889553	0.0000000000	-0.0052014925
