24
    s                      x[A]                      y[A]                      z[A]                      q[e]
    O	1.1305954456	-0.8544252515	0.0000003047	0.0856656954
N	1.1124805212	-0.8407291174	0.0000015569	-0.2204618156
O	-0.1746584922	-1.4063165188	-0.0000010288	0.0856594667
N	-0.1718558967	-1.3837821484	-0.0000028093	-0.2204577923
O	-1.3052548170	-0.5519169569	0.0000007671	0.0856679007
N	-1.2843424082	-0.5430616736	0.0000012388	-0.2204622626
O	-1.1305893660	0.8544292450	0.0000003183	0.0856655166
N	-1.1124818325	0.8407250047	0.0000015378	-0.2204603851
O	0.1746506095	1.4063199759	-0.0000010160	0.0856600031
N	0.1718582660	1.3837835789	-0.0000028152	-0.2204587460
O	1.3052558899	0.5519101024	0.0000007016	0.0856671259
N	1.2843397856	0.5430645347	0.0000012944	-0.2204619646
O	1.9879249334	-1.5023386478	-0.0000053284	0.0213304833
O	2.0663776398	-1.5616288185	-0.0000032710	0.1134666428
O	-0.3071035445	-2.4727506638	0.0000040483	0.0213323310
O	-0.3192224503	-2.5703358650	0.0000015899	0.1134627238
O	-2.2950313091	-0.9704246521	0.0000012836	0.0213304162
O	-2.3856041431	-1.0087281466	0.0000016833	0.1134665385
O	-1.9879209995	1.5023448467	-0.0000046140	0.0213309899
O	-2.0663731098	1.5616364479	-0.0000027207	0.1134653017
O	0.3071087003	2.4727501869	0.0000040573	0.0213313997
O	0.3192225695	2.5703356266	0.0000015893	0.1134644225
O	2.2950327396	0.9704214931	-0.0000001719	0.0213319585
O	2.3856067657	1.0087223053	0.0000005844	0.1134640500
