15
    s                      x[A]                      y[A]                      z[A]                      q[e]
    N	-0.0000277003	-0.0552269220	-0.0000000326	-0.3795566857
N	-0.0000383647	-0.5780587196	-0.0000000145	-0.4686451256
O	-0.0000459241	-0.6364662647	-0.0000000124	0.8436100483
O	-0.0000027159	1.3943060637	0.8483359218	0.9059219360
N	-0.0000069563	1.2545739412	0.6314625144	-0.1987719238
N	-0.0000019947	1.4935650826	0.9975553155	-0.4157382846
O	-0.0000032229	1.3943060637	-0.8483360410	0.9059219360
N	-0.0000072994	1.2545738220	-0.6314625740	-0.1987719536
N	-0.0000025533	1.4935652018	-0.9975553751	-0.4157382250
N	-1.4718092680	-0.2086353451	0.0000000011	-0.0819802433
N	-1.4779511690	-0.2183480561	0.0000000004	-0.1092973277
N	-1.3802641630	-0.1934227049	-0.0000000071	-0.0978371203
N	1.4718155861	-0.2086327970	0.0000000022	-0.0819844902
N	1.4779549837	-0.2183425426	0.0000000009	-0.1092930511
N	1.3802818060	-0.1934280545	-0.0000000039	-0.0978394598
