18
    s                      x[A]                      y[A]                      z[A]                      q[e]
    O	1.1305954456	-0.8544252515	0.0000003047	0.0856656954
N	1.1124805212	-0.8407291174	0.0000015569	-0.2204618156
O	-0.1746584922	-1.4063165188	-0.0000010288	0.0856594667
N	-0.1718558967	-1.3837821484	-0.0000028093	-0.2204577923
O	-1.3052548170	-0.5519169569	0.0000007671	0.0856679007
N	-1.2843424082	-0.5430616736	0.0000012388	-0.2204622626
O	-1.1305893660	0.8544292450	0.0000003183	0.0856655166
N	-1.1124818325	0.8407250047	0.0000015378	-0.2204603851
O	0.1746506095	1.4063199759	-0.0000010160	0.0856600031
N	0.1718582660	1.3837835789	-0.0000028152	-0.2204587460
O	1.3052558899	0.5519101024	0.0000007016	0.0856671259
N	1.2843397856	0.5430645347	0.0000012944	-0.2204619646
O	2.0271513462	-1.5319837332	-0.0000042997	0.1347971261
O	-0.3131629825	-2.5215432644	0.0000028191	0.1347950548
O	-2.3403177261	-0.9895763993	0.0000014835	0.1347969472
O	-2.0271470547	1.5319906473	-0.0000036673	0.1347962916
O	0.3131656349	2.5215430260	0.0000028233	0.1347958148
O	2.3403196335	0.9895719290	0.0000002062	0.1347960085
