20
    s                      x[A]                      y[A]                      z[A]                      q[e]
    N	0.0000071705	1.7787183523	0.0000000552	-4.9560766220
O	-0.0000132993	0.8067540526	-0.0000000021	1.1417367458
O	-0.0000021860	0.5516408682	0.0000000928	3.2021303177
O	-0.0000129124	0.5650703907	0.0000000266	0.2496168762
O	-0.0000033655	1.4163811207	0.8869586587	0.1885226816
O	-0.0000043374	1.1635957956	0.8286268115	0.1225738078
O	-0.0000128228	0.7885132432	0.5096560121	0.0291577317
N	0.0000038541	1.7703869343	1.2757223845	-0.0523770936
O	-0.0000038770	1.4163811207	-0.8869586587	0.1885227710
O	-0.0000048272	1.1635956764	-0.8286268711	0.1225737780
O	-0.0000131442	0.7885133028	-0.5096559525	0.0291576721
N	0.0000031211	1.7703869343	-1.2757225037	-0.0523771010
N	-1.1626775265	-0.1244099960	-0.0000000573	-1.7776124477
O	-1.7080786228	-0.3731387258	0.0000000265	0.3703304529
O	-1.3461326361	-0.2225901932	-0.0000000444	1.0056962967
O	-1.4117228985	-0.3761468530	-0.0000000581	0.2949970365
N	1.1626694202	-0.1244066209	0.0000000211	-1.7779861689
O	1.7080316544	-0.3730957508	-0.0000000232	0.3704344928
O	1.3461322784	-0.2225820273	0.0000000224	1.0059295893
O	1.4117306471	-0.3761631250	0.0000000510	0.2950489521
