27
    s                      x[A]                      y[A]                      z[A]                      q[e]
    O	-1.0406372547	-0.2280211747	-0.0233197659	0.0614601970
O	-1.2827355862	-0.3121483922	-0.0182397366	0.6205391884
N	-1.3760844469	-0.3386950493	-0.0119978236	-1.2056614161
O	0.0517079569	0.0863191932	-0.0021562169	0.1281102747
O	0.2174219489	0.2848556638	0.0017298600	0.2212344110
O	0.0406439267	0.1209747493	0.0008570515	0.3771339953
N	0.9086571932	-0.6582491398	0.0184863172	-0.1404085308
O	0.9994999170	-0.7746541500	-0.0338447876	0.6053515673
N	1.0375297070	-0.8005658984	-0.0242944416	-1.3438098431
N	0.8759654164	-1.6935240030	0.2270203233	-0.2718374431
O	0.8725734949	-1.7580313683	0.2371949703	0.4920806587
O	0.8689883351	-1.7404323816	0.2333901525	0.1839108169
N	1.9502990246	-0.4958587885	-0.1115883887	-0.2456544340
O	2.0136570930	-0.5006257892	-0.1167367250	0.4853232205
O	1.9917280674	-0.5019000769	-0.1202837974	0.1679175943
N	0.3961133361	1.2469171286	0.0320997946	-0.1518044919
O	0.3413302600	1.2364287376	0.0165882390	0.2316075414
N	0.3762640655	1.2859115601	0.0237487853	-0.6602872014
N	-1.8234267235	-0.3206040561	0.9789179564	-0.0295984205
O	-1.8395435810	-0.3099326193	1.1534427404	0.0458253548
O	-1.7713358402	-0.3129336536	1.0042150021	0.1311411560
O	-1.8587675095	0.3409787118	-0.6721013188	0.0166698489
N	-1.8845783472	0.4993470311	-0.7976286411	-0.0036103409
O	-1.8325012922	0.3833897412	-0.7061365843	0.1311332285
N	-1.4987670183	-1.2937347889	-0.3691456020	-0.0007433351
O	-1.4573591948	-1.5227760077	-0.4345633388	0.0085430313
O	-1.4496154785	-1.3421907425	-0.3827156126	0.1454336196
