48
    s                      x[A]                      y[A]                      z[A]                      q[e]
    O	1.0005298853	-0.7561326623	0.0000010818	0.5416883826
N	1.0806125402	-0.8166456223	0.0000010688	-0.6806705594
N	1.3795049191	-1.0425328016	0.0000043266	-0.0379600935
N	1.0371372700	-0.7837878466	0.0000002734	-0.0019722283
O	-0.1545631438	-1.2445255518	-0.0000021249	0.5416834950
N	-0.1669337600	-1.3441436291	-0.0000021142	-0.6806648374
N	-0.2131049782	-1.7159335613	-0.0000067010	-0.0379585959
N	-0.1602178514	-1.2900718451	-0.0000008570	-0.0019730404
O	-1.1551008224	-0.4884276986	0.0000010550	0.5416892171
N	-1.2475507259	-0.5275051594	0.0000010511	-0.6806697249
N	-1.5926179886	-0.6734191775	0.0000024295	-0.0379602499
N	-1.1973568201	-0.5062758327	0.0000005883	-0.0019721016
O	-1.0005267859	0.7561373711	0.0000010631	0.5416875482
N	-1.0806132555	0.8166421056	0.0000010605	-0.6806685328
N	-1.3795053959	1.0425271988	0.0000040296	-0.0379595868
N	-1.0371398926	0.7837817669	0.0000003008	-0.0019723587
O	0.1545562148	1.2445269823	-0.0000021181	0.5416848063
N	0.1669353098	1.3441449404	-0.0000021121	-0.6806672215
N	0.2131034434	1.7159361839	-0.0000066742	-0.0379586406
N	0.1602229029	1.2900725603	-0.0000008527	-0.0019731447
O	1.1551029682	0.4884220064	0.0000010719	0.5416877866
N	1.2475488186	0.5275074840	0.0000010617	-0.6806679368
N	1.5926158428	0.6734213233	0.0000029430	-0.0379601605
N	1.1973538399	0.5062813759	0.0000005205	-0.0019719265
O	2.0057561398	-1.5158152580	-0.0000031354	0.1299008876
O	1.9985109568	-1.5103391409	-0.0000036432	0.0562126897
O	1.8815944195	-1.4219807386	-0.0000012841	0.0078836866
N	2.0200631618	-1.5266287327	-0.0000041768	-0.0150825568
O	-0.3098578453	-2.4949283600	0.0000014918	0.1299073398
O	-0.3087378144	-2.4859180450	0.0000021331	0.0562038682
O	-0.2906747162	-2.3404839039	-0.0000006618	0.0078845955
N	-0.3120684028	-2.5127241611	0.0000028005	-0.0150833614
O	-2.3156151772	-0.9791342616	0.0000016478	0.1298990995
O	-2.3072514534	-0.9755960703	0.0000015095	0.0562139712
O	-2.1722748280	-0.9185225368	0.0000019647	0.0078842714
N	-2.3321321011	-0.9861199856	0.0000013565	-0.0150839649
O	-2.0057499409	1.5158227682	-0.0000026146	0.1299016774
O	-1.9985069036	1.5103451014	-0.0000030687	0.0562119223
O	-1.8815926313	1.4219855070	-0.0000009735	0.0078834407
N	-2.0200548172	1.5266369581	-0.0000035184	-0.0150836743
O	0.3098580539	2.4949293137	0.0000014958	0.1299065500
O	0.3087386489	2.4859180450	0.0000021325	0.0562049709
O	0.2906731367	2.3404839039	-0.0000006433	0.0078846104
N	0.3120682538	2.5127260685	0.0000027852	-0.0150825158
O	2.3156170845	0.9791274071	0.0000005943	0.1298994273
O	2.3072528839	0.9755913019	0.0000003623	0.0562126525
O	2.1722762585	0.9185191393	0.0000012880	0.0078847446
N	2.3321342468	0.9861117005	0.0000000855	-0.0150847696
