24
    s                      x[A]                      y[A]                      z[A]                      q[e]
    N	1.2431471348	-0.9394804239	0.0000017745	-0.1369077712
N	1.0353026390	-0.7824007273	0.0000020516	-0.0210878551
N	-0.1920423359	-1.5463232994	-0.0000032374	-0.1369123757
N	-0.1599336714	-1.2877904177	-0.0000032769	-0.0210842974
N	-1.4351938963	-0.6068492532	0.0000014750	-0.1369053870
N	-1.1952382326	-0.5053787827	0.0000012300	-0.0210886709
N	-1.2431482077	0.9394766092	0.0000017117	-0.1369064748
N	-1.0353059769	0.7823926210	0.0000019408	-0.0210878178
N	0.1920441687	1.5463243723	-0.0000032270	-0.1369125396
N	0.1599392295	1.2877908945	-0.0000032698	-0.0210845806
N	1.4351915121	0.6068515778	0.0000015692	-0.1369060129
N	1.1952352524	0.5053863525	0.0000014303	-0.0210880265
O	2.0983250141	-1.5857732296	-0.0000034724	0.1217610091
O	2.0878562927	-1.5778616667	-0.0000036909	0.0362354517
O	-0.3241582513	-2.6100745201	0.0000017317	0.1217581183
O	-0.3225401342	-2.5970528126	0.0000019726	0.0362360775
O	-2.4224853516	-1.0243240595	0.0000017410	0.1217625886
O	-2.4104018211	-1.0192130804	0.0000017154	0.0362330750
O	-2.0983190536	1.5857816935	-0.0000028962	0.1217616349
O	-2.0878529549	1.5778688192	-0.0000030872	0.0362340435
O	0.3241580725	2.6100749969	0.0000017333	0.1217582077
O	0.3225405514	2.5970525742	0.0000019720	0.0362367257
O	2.4224877357	1.0243170261	0.0000005841	0.1217627078
O	2.4104044437	1.0192085505	0.0000005096	0.0362321138
