4
s                      x[A]                      y[A]                      z[A]                      q[e]
O       -0.4068362953661802       -0.0800791786016746        0.3347558833929129       -0.2922865872158291
O        0.3241780330398978        0.0677717374269209        0.3048303994352033       -0.4505015193371884
N        0.1613358264824722        0.4514035380251417        0.2783211191435099        0.1757329210796260
N       -0.1457733785590785       -0.4835826244981194        0.0783134513537508        0.1985117226979392

        RMSE         1.180657937E-01 kcal/mol
         MAE         6.699446201E-02 kcal/mol
     max. AE         1.557260756E+00 kcal/mol

Coordinates in bohr
s                   x[bohr]                   y[bohr]                   z[bohr]                      q[e]
-       -0.7688091761379483       -0.1513277159087879        0.6325969384983018       -0.2922865872158291
-        0.6126076983350258        0.1280700227833205        0.5760459696464488       -0.4505015193371884
+        0.3048805262762587        0.8530290589302064        0.5259506901121516        0.1757329210796260
+       -0.2754717618593447       -0.9138387193315590        0.1479909749979536        0.1985117226979392
