2
s                      x[A]                      y[A]                      z[A]                      q[e]
O       -0.0581129422844766        0.4024969324607619       -0.3029548172757613       -0.2190069293222893
N       -0.0190840462784081        0.8191921014194827       -0.5052307723321292        0.3944438951315204

        RMSE         1.975606872E-01 kcal/mol
         MAE         1.503093208E-01 kcal/mol
     max. AE         1.081730419E+00 kcal/mol

Coordinates in bohr
s                   x[bohr]                   y[bohr]                   z[bohr]                      q[e]
-       -0.1098175452621984        0.7606089686877368       -0.5725016330393087       -0.2190069293222893
+       -0.0360636208317540        1.5480487158210954       -0.9547477898612605        0.3944438951315204
