4
s                      x[A]                      y[A]                      z[A]                      q[e]
N       -0.0216579445969584       -0.0590963434606396        0.3282678889714957        0.9999988632842893
O        0.4917444280207495       -0.0061927191651346        0.2403253787075296       -0.4089607656410986
O       -0.5041963717920208       -0.0434685703950473        0.0940083057302137       -0.3182686838491826
O       -0.0974768187833216       -0.0823780637894517        0.6087531229916799       -0.5942160259827520

        RMSE         3.726610223E-01 kcal/mol
         MAE         2.633815184E-01 kcal/mol
     max. AE         2.051144791E+00 kcal/mol

Coordinates in bohr
s                   x[bohr]                   y[bohr]                   z[bohr]                      q[e]
+       -0.0409275837285906       -0.1116759041565996        0.6203364059383252        0.9999988632842893
-        0.9292622926791267       -0.0117025431939783        0.4541491467541651       -0.4089607656410986
-       -0.9527930561364302       -0.0821436931118237        0.1776499513484117       -0.3182686838491826
-       -0.1842044910813611       -0.1556719793075584        1.1503766804714202       -0.5942160259827520
