3
s                      x[A]                      y[A]                      z[A]                      q[e]
N       -0.2548071681341388       -0.4128169312243917        0.2645972027284811        0.9029917551307357
O       -0.3220213086977773       -0.3153512444508692        0.3174167950411439       -0.9999398995311810
O        0.4405338563405185       -0.1168371773334671        0.3397610444066702       -0.2715953183750071

        RMSE         3.258441710E-01 kcal/mol
         MAE         2.224018692E-01 kcal/mol
     max. AE         2.131267860E+00 kcal/mol

Coordinates in bohr
s                   x[bohr]                   y[bohr]                   z[bohr]                      q[e]
+       -0.4815157625770075       -0.7801109399660604        0.5000162467190722        0.9029917551307357
-       -0.6085320800003099       -0.5959274853344455        0.5998308102483424       -0.9999398995311810
-        0.8324883374753635       -0.2207902664318020        0.6420553220281220       -0.2715953183750071
