12
Properties=species:S:1:pos:R:3 pbc="F F F"
C       -1.21699174       0.26123775       0.00000000
C       -1.20663098      -1.13314841      -0.00000000
C        1.20662728      -1.13314946      -0.00000000
H       -2.15309527      -1.67497644      -0.00000000
C        1.21699280       0.26123458       0.00000000
F        0.00000529       2.27828532       0.00000000
C        0.00000000       0.92768909       0.00000000
H       -0.00000265      -2.92251916      -0.00000000
H       -2.14597837       0.83014271       0.00000000
C       -0.00000318      -1.83259340      -0.00000000
H        2.14597572       0.83014536       0.00000000
H        2.15308998      -1.67497962      -0.00000000
